Version 4
SHEET 1 1140 680
WIRE 496 -272 272 -272
WIRE 608 -272 560 -272
WIRE 720 -272 688 -272
WIRE 976 -272 912 -272
WIRE 496 -240 464 -240
WIRE 928 -208 912 -208
WIRE 720 -176 672 -176
WIRE 928 -176 928 -208
WIRE 928 -176 912 -176
WIRE 464 -144 464 -240
WIRE 528 -144 464 -144
WIRE 272 -128 272 -272
WIRE 304 -128 272 -128
WIRE 400 -128 384 -128
WIRE 672 -112 672 -176
WIRE 272 -80 272 -128
WIRE 976 -80 976 -272
WIRE -128 -32 -176 -32
WIRE 0 -32 -64 -32
WIRE 48 -32 0 -32
WIRE 160 -32 128 -32
WIRE 208 -32 160 -32
WIRE 400 0 400 -128
WIRE 528 0 528 -144
WIRE -864 16 -912 16
WIRE -768 16 -784 16
WIRE -656 16 -688 16
WIRE -592 16 -656 16
WIRE -512 16 -592 16
WIRE -368 16 -432 16
WIRE -192 16 -208 16
WIRE -176 16 -176 -32
WIRE -176 16 -192 16
WIRE -912 48 -912 16
WIRE -656 48 -656 16
WIRE -592 48 -592 16
WIRE -512 48 -512 16
WIRE -432 48 -432 16
WIRE -176 48 -176 16
WIRE -128 48 -176 48
WIRE -16 48 -64 48
WIRE 160 48 160 -32
WIRE 976 64 976 -16
WIRE -128 128 -176 128
WIRE 0 128 0 -32
WIRE 0 128 -64 128
WIRE -912 160 -912 128
WIRE -656 160 -656 128
WIRE -656 160 -912 160
WIRE -592 160 -592 128
WIRE -592 160 -656 160
WIRE -512 160 -512 128
WIRE -512 160 -592 160
WIRE -432 160 -432 128
WIRE -176 160 -176 128
WIRE -176 160 -432 160
WIRE -176 208 -176 160
WIRE -128 208 -176 208
WIRE -16 208 -16 48
WIRE -16 208 -64 208
WIRE 160 208 160 128
WIRE 160 208 -16 208
WIRE 272 208 272 16
WIRE 272 208 160 208
WIRE 400 208 400 80
WIRE 400 208 272 208
WIRE 528 208 528 80
WIRE 528 208 400 208
WIRE 272 240 272 208
WIRE -176 320 -176 208
WIRE 928 320 928 -176
WIRE 928 320 -176 320
WIRE -192 352 -192 16
WIRE 976 352 976 144
WIRE 976 352 -192 352
FLAG 272 240 0
FLAG 672 -112 0
SYMBOL ind -672 32 R0
WINDOW 3 24 105 Left 0
SYMATTR InstName L3
SYMATTR Value 155
SYMBOL ind -672 0 R90
WINDOW 0 5 56 VBottom 0
WINDOW 3 32 56 VTop 0
SYMATTR InstName L4
SYMATTR Value 0.1n
SYMBOL ind -272 0 R90
WINDOW 0 5 56 VBottom 0
WINDOW 3 32 56 VTop 0
SYMATTR InstName L5
SYMATTR Value 0.01µ
SYMBOL res -608 32 R0
WINDOW 3 21 105 Left 0
SYMATTR InstName R1
SYMATTR Value 1000k
SYMBOL res -768 0 R90
WINDOW 0 0 56 VBottom 0
WINDOW 3 32 56 VTop 0
SYMATTR InstName R2
SYMATTR Value 700
SYMBOL res -192 0 R90
WINDOW 0 0 56 VBottom 0
WINDOW 3 32 56 VTop 0
SYMATTR InstName R3
SYMATTR Value 10
SYMBOL voltage -912 32 R0
WINDOW 3 -145 112 Left 0
WINDOW 123 -124 138 Left 0
WINDOW 39 0 0 Left 0
SYMATTR InstName V1
SYMATTR Value SINE(0 311 50)
SYMBOL ind2 -528 32 R0
WINDOW 0 30 5 Left 0
WINDOW 3 19 108 Left 0
SYMATTR InstName L6
SYMATTR Value 1800
SYMBOL ind2 -448 32 R0
WINDOW 0 -18 19 Left 0
SYMATTR InstName L7
SYMATTR Value 5
SYMBOL diode -64 32 R90
WINDOW 0 0 32 VBottom 0
WINDOW 3 32 32 VTop 0
SYMATTR InstName D1
SYMATTR Value 1N4148
SYMBOL diode -64 192 R90
WINDOW 0 0 32 VBottom 0
WINDOW 3 32 32 VTop 0
SYMATTR InstName D2
SYMATTR Value 1N4148
SYMBOL diode -128 144 R270
WINDOW 0 32 32 VTop 0
WINDOW 3 0 32 VBottom 0
SYMATTR InstName D3
SYMATTR Value 1N4148
SYMBOL diode -128 -16 R270
WINDOW 0 32 32 VTop 0
WINDOW 3 0 32 VBottom 0
SYMATTR InstName D4
SYMATTR Value 1N4148
SYMBOL res 144 -48 R90
WINDOW 0 0 56 VBottom 0
WINDOW 3 32 56 VTop 0
SYMATTR InstName R4
SYMATTR Value 330k
SYMBOL res 176 144 R180
WINDOW 0 36 76 Left 0
WINDOW 3 36 40 Left 0
SYMATTR InstName R5
SYMATTR Value 100k
SYMBOL npn 208 -80 R0
SYMATTR InstName Q1
SYMATTR Value 2N2222
SYMBOL res 400 -144 R90
WINDOW 0 0 56 VBottom 0
WINDOW 3 32 56 VTop 0
SYMATTR InstName R6
SYMATTR Value 1k
SYMBOL voltage 400 -16 R0
WINDOW 123 0 0 Left 0
WINDOW 39 0 0 Left 0
SYMATTR InstName V2
SYMATTR Value 5
SYMBOL Digital\\and 528 -320 R0
SYMATTR InstName A1
SYMBOL voltage 528 -16 R0
WINDOW 123 0 0 Left 0
WINDOW 39 0 0 Left 0
SYMATTR InstName V3
SYMATTR Value PULSE(0 5 0 0 0 5m 50m 10)
SYMBOL res 704 -288 R90
WINDOW 0 0 56 VBottom 0
WINDOW 3 32 56 VTop 0
SYMATTR InstName R7
SYMATTR Value 100
SYMBOL Optos\\MOC206 816 -208 R0
SYMATTR InstName U1
SYMBOL LED 992 -16 R180
WINDOW 0 24 72 Left 0
WINDOW 3 24 0 Left 0
SYMATTR InstName D5
SYMBOL res 960 48 R0
SYMATTR InstName R8
SYMATTR Value 4.7k
TEXT -1058 378 Left 0 !.tran 0 0.5 0 0.01
TEXT -520 0 Left 0 !K L6 L7 1
